@<TRIPOS>MOLECULE
UNK
38   39    1
SMALL
USER_CHARGES


@<TRIPOS>ATOM
      1 C1        133.6550    6.4400  -36.7280 C.2       1 UNK         0.0000 
      2 C2        132.2550    7.9060  -35.3340 C.2       1 UNK         0.0000 
      3 N1        133.0240    8.6030  -37.5930 N.am      1 UNK         0.0000 
      4 C3        133.6910    7.4260  -37.8070 C.2       1 UNK         0.0000 
      5 C4        132.3730    8.9690  -36.4430 C.2       1 UNK         0.0000 
      6 C5        132.9950    6.6380  -35.5670 C.2       1 UNK         0.0000 
      7 N2        131.5950    7.9900  -34.2380 N.2       1 UNK         0.0000 
      8 C6        128.6730    8.8870  -32.6200 C.ar      1 UNK         0.0000 
      9 C7        134.3630    5.2290  -36.9990 C.1       1 UNK         0.0000 
     10 C8        129.1880    9.4970  -31.3260 C.2       1 UNK         0.0000 
     11 N3        130.7480    9.0990  -33.9320 N.pl3     1 UNK         0.0000 
     12 N4        134.9440    4.2560  -37.2370 N.1       1 UNK         0.0000 
     13 C9        129.4600    8.7430  -33.8140 C.ar      1 UNK         0.0000 
     14 O1        134.3030    7.2070  -38.8550 O.2       1 UNK         0.0000 
     15 O2        131.9260   10.1090  -36.2860 O.2       1 UNK         0.0000 
     16 O3        128.4670   10.2480  -30.6310 O.co2     1 UNK         0.0000 
     17 C10       133.0540    9.6020  -38.6900 C.3       1 UNK         0.0000 
     18 O4        130.3490    9.2060  -30.9550 O.co2     1 UNK         0.0000 
     19 C11       132.9360    5.5780  -34.4650 C.3       1 UNK         0.0000 
     20 C12       127.3300    8.4330  -32.6340 C.ar      1 UNK         0.0000 
     21 O5        132.8660    8.5540  -40.8580 O.3       1 UNK         0.0000 
     22 C13       128.8570    8.1580  -34.9520 C.ar      1 UNK         0.0000 
     23 C14       132.1230    9.2030  -39.8490 C.3       1 UNK         0.0000 
     24 C15       126.7550    7.8580  -33.7790 C.ar      1 UNK         0.0000 
     25 C16       127.5220    7.7210  -34.9440 C.ar      1 UNK         0.0000 
     26 H1        132.7860   10.5980  -38.3310 H         1 UNK         0.0000 
     27 H2        134.0680    9.7460  -39.0700 H         1 UNK         0.0000 
     28 H3        131.9090    5.2400  -34.3180 H         1 UNK         0.0000 
     29 H4        133.5390    4.6980  -34.6850 H         1 UNK         0.0000 
     30 H5        133.2990    5.9860  -33.5210 H         1 UNK         0.0000 
     31 H6        126.7120    8.5280  -31.7530 H         1 UNK         0.0000 
     32 H7        132.4000    7.7750  -41.1220 H         1 UNK         0.0000 
     33 H8        129.4330    8.0380  -35.8580 H         1 UNK         0.0000 
     34 H9        131.3360    8.5320  -39.5010 H         1 UNK         0.0000 
     35 H10       131.6380   10.0800  -40.2790 H         1 UNK         0.0000 
     36 H11       125.7290    7.5230  -33.7620 H         1 UNK         0.0000 
     37 H12       127.0910    7.2790  -35.8300 H         1 UNK         0.0000 
     38 H13       131.1429   10.0229  -33.8296 H         1 UNK         0.0000 
@<TRIPOS>BOND
     1    1    4 1    
     2    1    6 2    
     3    1    9 1    
     4    2    5 1    
     5    2    6 1    
     6    2    7 2    
     7    3    4 am   BACKBONE|DICT|INTERRES
     8    3    5 am   BACKBONE|DICT|INTERRES
     9    3   17 1    
    10    4   14 2    
    11    5   15 2    
    12    6   19 1    
    13    7   11 1    
    14    8   10 1    
    15    8   13 ar   
    16    8   20 ar   
    17    9   12 3    
    18   10   16 2    
    19   10   18 1    
    20   11   13 1    
    21   11   38 1    
    22   13   22 ar   
    23   17   23 1    
    24   17   26 1    
    25   17   27 1    
    26   19   28 1    
    27   19   29 1    
    28   19   30 1    
    29   20   24 ar   
    30   20   31 1    
    31   21   23 1    
    32   21   32 1    
    33   22   25 ar   
    34   22   33 1    
    35   23   34 1    
    36   23   35 1    
    37   24   25 ar   
    38   24   36 1    
    39   25   37 1    
@<TRIPOS>SUBSTRUCTURE
     1 UNK         1 GROUP             0       ****    0 ROOT    
