# created with PyMOL 2.4.1
@<TRIPOS>MOLECULE
5646-1354-7.576
37 38 1                 
SMALL
USER_CHARGES
@<TRIPOS>ATOM
1	   C	133.655	6.440	-36.728	C.2	1	UNK0	0.000	
2	   C	132.255	7.906	-35.334	C.2	1	UNK0	0.000	
3	   N	133.024	8.603	-37.593	N.pl3	1	UNK0	0.000	
4	   C	133.691	7.426	-37.807	C.2	1	UNK0	0.000	
5	   C	132.373	8.969	-36.443	C.2	1	UNK0	0.000	
6	   C	132.995	6.638	-35.567	C.2	1	UNK0	0.000	
7	   N	131.595	7.990	-34.238	N.2	1	UNK0	0.000	
8	   C	128.673	8.887	-32.620	C.2	1	UNK0	0.000	
9	   C	134.363	5.229	-36.999	C.1	1	UNK0	0.000	
10	   C	129.188	9.497	-31.326	C.2	1	UNK0	0.000	
11	   N	130.748	9.099	-33.932	N.pl3	1	UNK0	0.000	
12	   N	134.944	4.256	-37.237	N.1	1	UNK0	0.000	
13	   C	129.460	8.743	-33.814	C.2	1	UNK0	0.000	
14	   O	134.303	7.207	-38.855	O.2	1	UNK0	0.000	
15	   O	131.926	10.109	-36.286	O.2	1	UNK0	0.000	
16	   O	128.467	10.248	-30.631	O.co2	1	UNK0	0.000	
17	   C	133.054	9.602	-38.690	C.3	1	UNK0	0.000	
18	   O	130.349	9.206	-30.955	O.co2	1	UNK0	0.000	
19	   C	132.936	5.578	-34.465	C.3	1	UNK0	0.000	
20	   C	127.330	8.433	-32.634	C.2	1	UNK0	0.000	
21	   O	132.866	8.554	-40.858	O.3	1	UNK0	0.000	
22	   C	128.857	8.158	-34.952	C.2	1	UNK0	0.000	
23	   C	132.123	9.203	-39.849	C.3	1	UNK0	0.000	
24	   C	126.755	7.858	-33.779	C.2	1	UNK0	0.000	
25	   C	127.522	7.721	-34.944	C.2	1	UNK0	0.000	
26	   H	132.786	10.598	-38.331	 H	1	UNK0	0.000	
27	   H	134.068	9.746	-39.070	 H	1	UNK0	0.000	
28	   H	131.909	5.240	-34.318	 H	1	UNK0	0.000	
29	   H	133.539	4.698	-34.685	 H	1	UNK0	0.000	
30	   H	133.299	5.986	-33.521	 H	1	UNK0	0.000	
31	   H	126.712	8.528	-31.753	 H	1	UNK0	0.000	
32	   H	132.400	7.775	-41.122	 H	1	UNK0	0.000	
33	   H	129.433	8.038	-35.858	 H	1	UNK0	0.000	
34	   H	131.336	8.532	-39.501	 H	1	UNK0	0.000	
35	   H	131.638	10.080	-40.279	 H	1	UNK0	0.000	
36	   H	125.729	7.523	-33.762	 H	1	UNK0	0.000	
37	   H	127.091	7.279	-35.830	 H	1	UNK0	0.000	
@<TRIPOS>BOND
1 1 4 1
2 1 6 2
3 1 9 1
4 2 5 1
5 2 6 1
6 2 7 2
7 3 4 1
8 3 5 1
9 3 17 1
10 4 14 2
11 5 15 2
12 6 19 1
13 7 11 1
14 8 10 1
15 8 13 2
16 8 20 1
17 9 12 3
18 10 16 2
19 10 18 1
20 11 13 1
21 13 22 1
22 17 23 1
23 17 26 1
24 17 27 1
25 19 28 1
26 19 29 1
27 19 30 1
28 20 24 2
29 20 31 1
30 21 23 1
31 21 32 1
32 22 25 2
33 22 33 1
34 23 34 1
35 23 35 1
36 24 25 1
37 24 36 1
38 25 37 1
@<TRIPOS>SUBSTRUCTURE
1	UNK0	1	GROUP	1 ****	UNK
