@<TRIPOS>MOLECULE
MOL
   38    39     1     0     0
SMALL
resp


@<TRIPOS>ATOM
      1 C1           2.9630     1.4930    -0.1480 cc         1 MOL      -0.427293
      2 C2           0.6930     0.6580    -0.1320 cd         1 MOL      -0.147307
      3 N1           2.5660    -0.8930    -0.4390 n          1 MOL      -0.288172
      4 C3           3.5040     0.1460    -0.3760 c          1 MOL       0.583308
      5 C4           1.1840    -0.7100    -0.3510 c          1 MOL       0.573905
      6 C5           1.6150     1.7550    -0.0290 cd         1 MOL       0.255047
      7 N2          -0.5970     0.9750    -0.0160 n2         1 MOL      -0.102723
      8 C6          -3.9450    -0.3830    -0.0090 ca         1 MOL      -0.040044
      9 C7           3.9420     2.5260    -0.0640 cg         1 MOL       0.488415
     10 C8          -3.7300    -1.8920    -0.2090 c          1 MOL       0.640947
     11 N3          -1.5630     0.1210    -0.0770 nh         1 MOL       0.034266
     12 N4           4.7410     3.3720     0.0070 n1         1 MOL      -0.558194
     13 C9          -2.8990     0.5680     0.0560 ca         1 MOL       0.001898
     14 O1           4.7070    -0.0650    -0.5150 o          1 MOL      -0.526014
     15 O2           0.4240    -1.6760    -0.4570 o          1 MOL      -0.487337
     16 O3          -4.7570    -2.6060    -0.2620 o          1 MOL      -0.699310
     17 C10          3.0550    -2.2700    -0.6330 c3         1 MOL      -0.072168
     18 O4          -2.5270    -2.2910    -0.3030 o          1 MOL      -0.699310
     19 C11          1.0930     3.1460     0.2030 c3         1 MOL      -0.286429
     20 C12         -5.2570     0.0910     0.1210 ca         1 MOL      -0.146233
     21 O5           3.9440    -2.5160     1.5820 oh         1 MOL      -0.629389
     22 C13         -3.1770     1.9320     0.2430 ca         1 MOL      -0.107298
     23 C14          3.0390    -3.0970     0.6480 c3         1 MOL       0.250962
     24 C15         -5.5420     1.4410     0.3080 ca         1 MOL      -0.135311
     25 C16         -4.4920     2.3640     0.3690 ca         1 MOL      -0.133191
     26 H1           2.4210    -2.7520    -1.3790 h1         1 MOL       0.095758
     27 H2           4.0710    -2.1900    -1.0150 h1         1 MOL       0.095758
     28 H3           0.5350     3.1900     1.1450 hc         1 MOL       0.105880
     29 H4           1.9030     3.8760     0.2390 hc         1 MOL       0.105880
     30 H5           0.3950     3.4280    -0.5910 hc         1 MOL       0.105880
     31 H6          -6.0500    -0.6470     0.0690 ha         1 MOL       0.125101
     32 H7           3.8190    -2.9740     2.4280 ho         1 MOL       0.421995
     33 H8          -2.3550     2.6370     0.2870 ha         1 MOL       0.093902
     34 H9           2.0190    -3.1360     1.0510 h1         1 MOL       0.000168
     35 H10          3.3360    -4.1240     0.3850 h1         1 MOL       0.000168
     36 H11         -6.5710     1.7750     0.4050 ha         1 MOL       0.130334
     37 H12         -4.6960     3.4210     0.5140 ha         1 MOL       0.137260
     38 H13         -1.4630    -0.9160    -0.2130 hn         1 MOL       0.238891
@<TRIPOS>BOND
     1     1     4 1   
     2     1     6 2   
     3     1     9 1   
     4     2     5 1   
     5     2     6 1   
     6     2     7 2   
     7     3     4 1   
     8     3     5 1   
     9     3    17 1   
    10     4    14 2   
    11     5    15 2   
    12     6    19 1   
    13     7    11 1   
    14     8    10 1   
    15     8    13 ar  
    16     8    20 ar  
    17     9    12 3   
    18    10    16 1   
    19    10    18 1   
    20    11    13 1   
    21    11    38 1   
    22    13    22 ar  
    23    17    23 1   
    24    17    26 1   
    25    17    27 1   
    26    19    28 1   
    27    19    29 1   
    28    19    30 1   
    29    20    24 ar  
    30    20    31 1   
    31    21    23 1   
    32    21    32 1   
    33    22    25 ar  
    34    22    33 1   
    35    23    34 1   
    36    23    35 1   
    37    24    25 ar  
    38    24    36 1   
    39    25    37 1   
@<TRIPOS>SUBSTRUCTURE
     1 MOL         1 TEMP              0 ****  ****    0 ROOT
