# created with PyMOL 2.3.5
@<TRIPOS>MOLECULE
obj01
49 52 1                 
SMALL
USER_CHARGES
@<TRIPOS>ATOM
1	  C1	27.931	-9.340	19.171	C.3	1	LIG1	0.000	
2	  N1	28.614	-8.207	18.600	N.pl3	1	LIG1	0.000	
3	  O1	26.701	-7.078	18.265	O.2	1	LIG1	0.000	
4	  C2	27.920	-7.199	18.138	C.2	1	LIG1	0.000	
5	  N2	29.789	-6.580	16.670	N.pl3	1	LIG1	0.000	
6	  O2	30.942	-9.708	17.167	O.2	1	LIG1	0.000	
7	  C3	28.616	-6.073	17.427	C.3	1	LIG1	0.000	
8	  N3	31.776	-8.767	19.029	N.pl3	1	LIG1	0.000	
9	  O3	28.710	-6.924	14.685	O.2	1	LIG1	0.000	
10	  C4	31.107	-6.439	17.238	C.3	1	LIG1	0.000	
11	  N4	32.013	-12.205	20.091	N.2	1	LIG1	0.000	
12	  C5	32.130	-7.642	16.956	C.3	1	LIG1	0.000	
13	  C6	31.544	-8.810	17.722	C.2	1	LIG1	0.000	
14	  C7	31.548	-9.934	19.775	C.2	1	LIG1	0.000	
15	  C8	32.205	-11.099	19.409	C.2	1	LIG1	0.000	
16	  C9	31.452	-12.190	21.270	C.2	1	LIG1	0.000	
17	 C10	30.801	-11.063	21.777	C.2	1	LIG1	0.000	
18	 C11	30.062	-11.078	22.969	C.2	1	LIG1	0.000	
19	 C12	29.595	-9.879	23.448	C.2	1	LIG1	0.000	
20	 C13	29.678	-8.694	22.685	C.2	1	LIG1	0.000	
21	 C14	30.316	-8.704	21.418	C.2	1	LIG1	0.000	
22	 C15	30.838	-9.883	21.005	C.2	1	LIG1	0.000	
23	 C16	32.103	-7.899	15.507	C.2	1	LIG1	0.000	
24	 C17	33.181	-8.423	14.905	C.2	1	LIG1	0.000	
25	 C18	33.200	-8.634	13.544	C.2	1	LIG1	0.000	
26	 C19	32.087	-8.393	12.738	C.2	1	LIG1	0.000	
27	 C20	30.931	-7.866	13.318	C.2	1	LIG1	0.000	
28	 C21	30.930	-7.550	14.743	C.2	1	LIG1	0.000	
29	 C22	29.722	-6.972	15.378	C.2	1	LIG1	0.000	
30	 Cl1	34.651	-9.321	12.799	Cl	1	LIG1	0.000	
31	 H01	29.250	-7.768	23.071	 H	1	LIG1	0.000	
32	 H02	30.383	-7.805	20.806	 H	1	LIG1	0.000	
33	 H03	29.865	-12.011	23.498	 H	1	LIG1	0.000	
34	 H04	29.149	-9.841	24.442	 H	1	LIG1	0.000	
35	 H05	31.493	-13.091	21.882	 H	1	LIG1	0.000	
36	 H06	32.882	-11.097	18.554	 H	1	LIG1	0.000	
37	 H07	34.055	-8.686	15.501	 H	1	LIG1	0.000	
38	 H08	30.040	-7.693	12.714	 H	1	LIG1	0.000	
39	 H09	32.119	-8.613	11.671	 H	1	LIG1	0.000	
40	  H1	29.519	-8.419	18.241	 H	1	LIG1	0.000	
41	  H2	28.585	-10.170	19.516	 H	1	LIG1	0.000	
42	  H3	27.275	-9.828	18.419	 H	1	LIG1	0.000	
43	  H4	27.379	-9.046	20.089	 H	1	LIG1	0.000	
44	  H5	28.927	-5.294	18.155	 H	1	LIG1	0.000	
45	  H6	27.854	-5.506	16.850	 H	1	LIG1	0.000	
46	  H7	32.252	-7.988	19.429	 H	1	LIG1	0.000	
47	  H8	31.110	-6.281	18.338	 H	1	LIG1	0.000	
48	  H9	31.493	-5.480	16.831	 H	1	LIG1	0.000	
49	 H10	33.139	-7.482	17.391	 H	1	LIG1	0.000	
@<TRIPOS>BOND
1 1 41 1
2 1 42 1
3 1 43 1
4 1 2 1
5 2 4 1
6 2 40 1
7 3 4 2
8 4 7 1
9 5 7 1
10 5 10 1
11 5 29 1
12 6 13 2
13 7 44 1
14 7 45 1
15 8 13 1
16 8 14 1
17 8 46 1
18 9 29 2
19 10 12 1
20 10 47 1
21 10 48 1
22 11 15 1
23 11 16 2
24 12 13 1
25 12 23 1
26 12 49 1
27 14 15 2
28 14 22 1
29 15 36 1
30 16 17 1
31 16 35 1
32 17 18 1
33 17 22 2
34 18 19 2
35 18 33 1
36 19 20 1
37 19 34 1
38 20 21 2
39 20 31 1
40 21 22 1
41 21 32 1
42 23 24 1
43 23 28 2
44 24 25 2
45 24 37 1
46 25 26 1
47 26 27 2
48 26 39 1
49 27 28 1
50 27 38 1
51 28 29 1
52 25 30 1
@<TRIPOS>SUBSTRUCTURE
1	LIG1	1	GROUP	1 L	LIG
